
---------- Begin Simulation Statistics ----------
simSeconds                                   0.000485                       # Number of seconds simulated (Second)
simTicks                                    484637000                       # Number of ticks simulated (Tick)
finalTick                                   484637000                       # Number of ticks from beginning of simulation (restored from checkpoints and never reset) (Tick)
simFreq                                  1000000000000                       # The number of ticks per simulated second ((Tick/Second))
hostSeconds                                      7.53                       # Real time elapsed on the host (Second)
hostTickRate                                 64369620                       # The number of ticks simulated per host second (ticks/s) ((Tick/Second))
hostMemory                                     769392                       # Number of bytes of host memory used (Byte)
simInsts                                       430216                       # Number of instructions simulated (Count)
simOps                                         833780                       # Number of ops (including micro ops) simulated (Count)
hostInstRate                                    57140                       # Simulator instruction rate (inst/s) ((Count/Second))
hostOpRate                                     110740                       # Simulator op (including micro ops) rate (op/s) ((Count/Second))
system.clk_domain.clock                          1000                       # Clock period in ticks (Tick)
system.clk_domain.voltage_domain.voltage            1                       # Voltage in Volts (Volt)
system.cpu.numCycles                           484638                       # Number of cpu cycles simulated (Cycle)
system.cpu.cpi                               1.126499                       # CPI: cycles per instruction (core level) ((Cycle/Count))
system.cpu.ipc                               0.887706                       # IPC: instructions per cycle (core level) ((Count/Cycle))
system.cpu.numWorkItemsStarted                      0                       # Number of work items this cpu started (Count)
system.cpu.numWorkItemsCompleted                    0                       # Number of work items this cpu completed (Count)
system.cpu.instsAdded                          993974                       # Number of instructions added to the IQ (excludes non-spec) (Count)
system.cpu.nonSpecInstsAdded                      255                       # Number of non-speculative instructions added to the IQ (Count)
system.cpu.instsIssued                         967161                       # Number of instructions issued (Count)
system.cpu.squashedInstsIssued                   3508                       # Number of squashed instructions issued (Count)
system.cpu.squashedInstsExamined               160416                       # Number of squashed instructions iterated over during squash; mainly for profiling (Count)
system.cpu.squashedOperandsExamined            173068                       # Number of squashed operands that are examined and possibly removed from graph (Count)
system.cpu.squashedNonSpecRemoved                 111                       # Number of squashed non-spec instructions that were removed (Count)
system.cpu.numIssuedDist::samples              474770                       # Number of insts issued each cycle (Count)
system.cpu.numIssuedDist::mean               2.037115                       # Number of insts issued each cycle (Count)
system.cpu.numIssuedDist::stdev              1.550650                       # Number of insts issued each cycle (Count)
system.cpu.numIssuedDist::underflows                0      0.00%      0.00% # Number of insts issued each cycle (Count)
system.cpu.numIssuedDist::0                    125798     26.50%     26.50% # Number of insts issued each cycle (Count)
system.cpu.numIssuedDist::1                     62613     13.19%     39.68% # Number of insts issued each cycle (Count)
system.cpu.numIssuedDist::2                     76833     16.18%     55.87% # Number of insts issued each cycle (Count)
system.cpu.numIssuedDist::3                     87222     18.37%     74.24% # Number of insts issued each cycle (Count)
system.cpu.numIssuedDist::4                    122304     25.76%    100.00% # Number of insts issued each cycle (Count)
system.cpu.numIssuedDist::overflows                 0      0.00%    100.00% # Number of insts issued each cycle (Count)
system.cpu.numIssuedDist::min_value                 0                       # Number of insts issued each cycle (Count)
system.cpu.numIssuedDist::max_value                 4                       # Number of insts issued each cycle (Count)
system.cpu.numIssuedDist::total                474770                       # Number of insts issued each cycle (Count)
system.cpu.statFuBusy::No_OpClass                   0      0.00%      0.00% # attempts to use FU when none available (Count)
system.cpu.statFuBusy::IntAlu                       0      0.00%      0.00% # attempts to use FU when none available (Count)
system.cpu.statFuBusy::IntMult                      0      0.00%      0.00% # attempts to use FU when none available (Count)
system.cpu.statFuBusy::IntDiv                       1    100.00%    100.00% # attempts to use FU when none available (Count)
system.cpu.statFuBusy::FloatAdd                     0      0.00%    100.00% # attempts to use FU when none available (Count)
system.cpu.statFuBusy::FloatCmp                     0      0.00%    100.00% # attempts to use FU when none available (Count)
system.cpu.statFuBusy::FloatCvt                     0      0.00%    100.00% # attempts to use FU when none available (Count)
system.cpu.statFuBusy::FloatMult                    0      0.00%    100.00% # attempts to use FU when none available (Count)
system.cpu.statFuBusy::FloatMultAcc                 0      0.00%    100.00% # attempts to use FU when none available (Count)
system.cpu.statFuBusy::FloatDiv                     0      0.00%    100.00% # attempts to use FU when none available (Count)
system.cpu.statFuBusy::FloatMisc                    0      0.00%    100.00% # attempts to use FU when none available (Count)
system.cpu.statFuBusy::FloatSqrt                    0      0.00%    100.00% # attempts to use FU when none available (Count)
system.cpu.statFuBusy::SimdAdd                      0      0.00%    100.00% # attempts to use FU when none available (Count)
system.cpu.statFuBusy::SimdAddAcc                   0      0.00%    100.00% # attempts to use FU when none available (Count)
system.cpu.statFuBusy::SimdAlu                      0      0.00%    100.00% # attempts to use FU when none available (Count)
system.cpu.statFuBusy::SimdCmp                      0      0.00%    100.00% # attempts to use FU when none available (Count)
system.cpu.statFuBusy::SimdCvt                      0      0.00%    100.00% # attempts to use FU when none available (Count)
system.cpu.statFuBusy::SimdMisc                     0      0.00%    100.00% # attempts to use FU when none available (Count)
system.cpu.statFuBusy::SimdMult                     0      0.00%    100.00% # attempts to use FU when none available (Count)
system.cpu.statFuBusy::SimdMultAcc                  0      0.00%    100.00% # attempts to use FU when none available (Count)
system.cpu.statFuBusy::SimdMatMultAcc               0      0.00%    100.00% # attempts to use FU when none available (Count)
system.cpu.statFuBusy::SimdShift                    0      0.00%    100.00% # attempts to use FU when none available (Count)
system.cpu.statFuBusy::SimdShiftAcc                 0      0.00%    100.00% # attempts to use FU when none available (Count)
system.cpu.statFuBusy::SimdDiv                      0      0.00%    100.00% # attempts to use FU when none available (Count)
system.cpu.statFuBusy::SimdSqrt                     0      0.00%    100.00% # attempts to use FU when none available (Count)
system.cpu.statFuBusy::SimdFloatAdd                 0      0.00%    100.00% # attempts to use FU when none available (Count)
system.cpu.statFuBusy::SimdFloatAlu                 0      0.00%    100.00% # attempts to use FU when none available (Count)
system.cpu.statFuBusy::SimdFloatCmp                 0      0.00%    100.00% # attempts to use FU when none available (Count)
system.cpu.statFuBusy::SimdFloatCvt                 0      0.00%    100.00% # attempts to use FU when none available (Count)
system.cpu.statFuBusy::SimdFloatDiv                 0      0.00%    100.00% # attempts to use FU when none available (Count)
system.cpu.statFuBusy::SimdFloatMisc                0      0.00%    100.00% # attempts to use FU when none available (Count)
system.cpu.statFuBusy::SimdFloatMult                0      0.00%    100.00% # attempts to use FU when none available (Count)
system.cpu.statFuBusy::SimdFloatMultAcc             0      0.00%    100.00% # attempts to use FU when none available (Count)
system.cpu.statFuBusy::SimdFloatMatMultAcc            0      0.00%    100.00% # attempts to use FU when none available (Count)
system.cpu.statFuBusy::SimdFloatSqrt                0      0.00%    100.00% # attempts to use FU when none available (Count)
system.cpu.statFuBusy::SimdReduceAdd                0      0.00%    100.00% # attempts to use FU when none available (Count)
system.cpu.statFuBusy::SimdReduceAlu                0      0.00%    100.00% # attempts to use FU when none available (Count)
system.cpu.statFuBusy::SimdReduceCmp                0      0.00%    100.00% # attempts to use FU when none available (Count)
system.cpu.statFuBusy::SimdFloatReduceAdd            0      0.00%    100.00% # attempts to use FU when none available (Count)
system.cpu.statFuBusy::SimdFloatReduceCmp            0      0.00%    100.00% # attempts to use FU when none available (Count)
system.cpu.statFuBusy::SimdAes                      0      0.00%    100.00% # attempts to use FU when none available (Count)
system.cpu.statFuBusy::SimdAesMix                   0      0.00%    100.00% # attempts to use FU when none available (Count)
system.cpu.statFuBusy::SimdSha1Hash                 0      0.00%    100.00% # attempts to use FU when none available (Count)
system.cpu.statFuBusy::SimdSha1Hash2                0      0.00%    100.00% # attempts to use FU when none available (Count)
system.cpu.statFuBusy::SimdSha256Hash               0      0.00%    100.00% # attempts to use FU when none available (Count)
system.cpu.statFuBusy::SimdSha256Hash2              0      0.00%    100.00% # attempts to use FU when none available (Count)
system.cpu.statFuBusy::SimdShaSigma2                0      0.00%    100.00% # attempts to use FU when none available (Count)
system.cpu.statFuBusy::SimdShaSigma3                0      0.00%    100.00% # attempts to use FU when none available (Count)
system.cpu.statFuBusy::SimdSha3                     0      0.00%    100.00% # attempts to use FU when none available (Count)
system.cpu.statFuBusy::SimdSm4e                     0      0.00%    100.00% # attempts to use FU when none available (Count)
system.cpu.statFuBusy::SimdCrc                      0      0.00%    100.00% # attempts to use FU when none available (Count)
system.cpu.statFuBusy::SimdPredAlu                  0      0.00%    100.00% # attempts to use FU when none available (Count)
system.cpu.statFuBusy::SimdDotProd                  0      0.00%    100.00% # attempts to use FU when none available (Count)
system.cpu.statFuBusy::Matrix                       0      0.00%    100.00% # attempts to use FU when none available (Count)
system.cpu.statFuBusy::MatrixMov                    0      0.00%    100.00% # attempts to use FU when none available (Count)
system.cpu.statFuBusy::MatrixOP                     0      0.00%    100.00% # attempts to use FU when none available (Count)
system.cpu.statFuBusy::MemRead                      0      0.00%    100.00% # attempts to use FU when none available (Count)
system.cpu.statFuBusy::MemWrite                     0      0.00%    100.00% # attempts to use FU when none available (Count)
system.cpu.statFuBusy::FloatMemRead                 0      0.00%    100.00% # attempts to use FU when none available (Count)
system.cpu.statFuBusy::FloatMemWrite                0      0.00%    100.00% # attempts to use FU when none available (Count)
system.cpu.statFuBusy::InstPrefetch                 0      0.00%    100.00% # attempts to use FU when none available (Count)
system.cpu.statFuBusy::SimdUnitStrideLoad            0      0.00%    100.00% # attempts to use FU when none available (Count)
system.cpu.statFuBusy::SimdUnitStrideStore            0      0.00%    100.00% # attempts to use FU when none available (Count)
system.cpu.statFuBusy::SimdUnitStrideMaskLoad            0      0.00%    100.00% # attempts to use FU when none available (Count)
system.cpu.statFuBusy::SimdUnitStrideMaskStore            0      0.00%    100.00% # attempts to use FU when none available (Count)
system.cpu.statFuBusy::SimdStridedLoad              0      0.00%    100.00% # attempts to use FU when none available (Count)
system.cpu.statFuBusy::SimdStridedStore             0      0.00%    100.00% # attempts to use FU when none available (Count)
system.cpu.statFuBusy::SimdIndexedLoad              0      0.00%    100.00% # attempts to use FU when none available (Count)
system.cpu.statFuBusy::SimdIndexedStore             0      0.00%    100.00% # attempts to use FU when none available (Count)
system.cpu.statFuBusy::SimdWholeRegisterLoad            0      0.00%    100.00% # attempts to use FU when none available (Count)
system.cpu.statFuBusy::SimdWholeRegisterStore            0      0.00%    100.00% # attempts to use FU when none available (Count)
system.cpu.statFuBusy::SimdUnitStrideFaultOnlyFirstLoad            0      0.00%    100.00% # attempts to use FU when none available (Count)
system.cpu.statFuBusy::SimdUnitStrideSegmentedLoad            0      0.00%    100.00% # attempts to use FU when none available (Count)
system.cpu.statFuBusy::SimdUnitStrideSegmentedStore            0      0.00%    100.00% # attempts to use FU when none available (Count)
system.cpu.statFuBusy::SimdUnitStrideSegmentedFaultOnlyFirstLoad            0      0.00%    100.00% # attempts to use FU when none available (Count)
system.cpu.statFuBusy::SimdStrideSegmentedLoad            0      0.00%    100.00% # attempts to use FU when none available (Count)
system.cpu.statFuBusy::SimdStrideSegmentedStore            0      0.00%    100.00% # attempts to use FU when none available (Count)
system.cpu.statFuBusy::SimdExt                      0      0.00%    100.00% # attempts to use FU when none available (Count)
system.cpu.statFuBusy::SimdFloatExt                 0      0.00%    100.00% # attempts to use FU when none available (Count)
system.cpu.statFuBusy::SimdConfig                   0      0.00%    100.00% # attempts to use FU when none available (Count)
system.cpu.statFuBusy::SimdBf16Add                  0      0.00%    100.00% # attempts to use FU when none available (Count)
system.cpu.statFuBusy::SimdBf16Cmp                  0      0.00%    100.00% # attempts to use FU when none available (Count)
system.cpu.statFuBusy::SimdBf16Cvt                  0      0.00%    100.00% # attempts to use FU when none available (Count)
system.cpu.statFuBusy::SimdBf16DotProd              0      0.00%    100.00% # attempts to use FU when none available (Count)
system.cpu.statFuBusy::SimdBf16MatMultAcc            0      0.00%    100.00% # attempts to use FU when none available (Count)
system.cpu.statFuBusy::SimdBf16Mult                 0      0.00%    100.00% # attempts to use FU when none available (Count)
system.cpu.statFuBusy::SimdBf16MultAcc              0      0.00%    100.00% # attempts to use FU when none available (Count)
system.cpu.statFuBusy::Bf16Cvt                      0      0.00%    100.00% # attempts to use FU when none available (Count)
system.cpu.statFuBusy::System                       0      0.00%    100.00% # attempts to use FU when none available (Count)
system.cpu.issuedInstType_0::No_OpClass          1928      0.80%      0.80% # Number of instructions issued per FU type, per thread (Count)
system.cpu.issuedInstType_0::IntAlu            180657     74.76%     75.56% # Number of instructions issued per FU type, per thread (Count)
system.cpu.issuedInstType_0::IntMult              759      0.31%     75.88% # Number of instructions issued per FU type, per thread (Count)
system.cpu.issuedInstType_0::IntDiv              1486      0.61%     76.49% # Number of instructions issued per FU type, per thread (Count)
system.cpu.issuedInstType_0::FloatAdd             630      0.26%     76.75% # Number of instructions issued per FU type, per thread (Count)
system.cpu.issuedInstType_0::FloatCmp               0      0.00%     76.75% # Number of instructions issued per FU type, per thread (Count)
system.cpu.issuedInstType_0::FloatCvt               0      0.00%     76.75% # Number of instructions issued per FU type, per thread (Count)
system.cpu.issuedInstType_0::FloatMult              0      0.00%     76.75% # Number of instructions issued per FU type, per thread (Count)
system.cpu.issuedInstType_0::FloatMultAcc            0      0.00%     76.75% # Number of instructions issued per FU type, per thread (Count)
system.cpu.issuedInstType_0::FloatDiv               0      0.00%     76.75% # Number of instructions issued per FU type, per thread (Count)
system.cpu.issuedInstType_0::FloatMisc              0      0.00%     76.75% # Number of instructions issued per FU type, per thread (Count)
system.cpu.issuedInstType_0::FloatSqrt              0      0.00%     76.75% # Number of instructions issued per FU type, per thread (Count)
system.cpu.issuedInstType_0::SimdAdd              401      0.17%     76.92% # Number of instructions issued per FU type, per thread (Count)
system.cpu.issuedInstType_0::SimdAddAcc             0      0.00%     76.92% # Number of instructions issued per FU type, per thread (Count)
system.cpu.issuedInstType_0::SimdAlu             1353      0.56%     77.48% # Number of instructions issued per FU type, per thread (Count)
system.cpu.issuedInstType_0::SimdCmp                0      0.00%     77.48% # Number of instructions issued per FU type, per thread (Count)
system.cpu.issuedInstType_0::SimdCvt              940      0.39%     77.87% # Number of instructions issued per FU type, per thread (Count)
system.cpu.issuedInstType_0::SimdMisc             973      0.40%     78.27% # Number of instructions issued per FU type, per thread (Count)
system.cpu.issuedInstType_0::SimdMult               0      0.00%     78.27% # Number of instructions issued per FU type, per thread (Count)
system.cpu.issuedInstType_0::SimdMultAcc            0      0.00%     78.27% # Number of instructions issued per FU type, per thread (Count)
system.cpu.issuedInstType_0::SimdMatMultAcc            0      0.00%     78.27% # Number of instructions issued per FU type, per thread (Count)
system.cpu.issuedInstType_0::SimdShift            293      0.12%     78.39% # Number of instructions issued per FU type, per thread (Count)
system.cpu.issuedInstType_0::SimdShiftAcc            0      0.00%     78.39% # Number of instructions issued per FU type, per thread (Count)
system.cpu.issuedInstType_0::SimdDiv                0      0.00%     78.39% # Number of instructions issued per FU type, per thread (Count)
system.cpu.issuedInstType_0::SimdSqrt               0      0.00%     78.39% # Number of instructions issued per FU type, per thread (Count)
system.cpu.issuedInstType_0::SimdFloatAdd            0      0.00%     78.39% # Number of instructions issued per FU type, per thread (Count)
system.cpu.issuedInstType_0::SimdFloatAlu            0      0.00%     78.39% # Number of instructions issued per FU type, per thread (Count)
system.cpu.issuedInstType_0::SimdFloatCmp            0      0.00%     78.39% # Number of instructions issued per FU type, per thread (Count)
system.cpu.issuedInstType_0::SimdFloatCvt            0      0.00%     78.39% # Number of instructions issued per FU type, per thread (Count)
system.cpu.issuedInstType_0::SimdFloatDiv            0      0.00%     78.39% # Number of instructions issued per FU type, per thread (Count)
system.cpu.issuedInstType_0::SimdFloatMisc            0      0.00%     78.39% # Number of instructions issued per FU type, per thread (Count)
system.cpu.issuedInstType_0::SimdFloatMult            0      0.00%     78.39% # Number of instructions issued per FU type, per thread (Count)
system.cpu.issuedInstType_0::SimdFloatMultAcc            0      0.00%     78.39% # Number of instructions issued per FU type, per thread (Count)
system.cpu.issuedInstType_0::SimdFloatMatMultAcc            0      0.00%     78.39% # Number of instructions issued per FU type, per thread (Count)
system.cpu.issuedInstType_0::SimdFloatSqrt            0      0.00%     78.39% # Number of instructions issued per FU type, per thread (Count)
system.cpu.issuedInstType_0::SimdReduceAdd            0      0.00%     78.39% # Number of instructions issued per FU type, per thread (Count)
system.cpu.issuedInstType_0::SimdReduceAlu            0      0.00%     78.39% # Number of instructions issued per FU type, per thread (Count)
system.cpu.issuedInstType_0::SimdReduceCmp            0      0.00%     78.39% # Number of instructions issued per FU type, per thread (Count)
system.cpu.issuedInstType_0::SimdFloatReduceAdd            0      0.00%     78.39% # Number of instructions issued per FU type, per thread (Count)
system.cpu.issuedInstType_0::SimdFloatReduceCmp            0      0.00%     78.39% # Number of instructions issued per FU type, per thread (Count)
system.cpu.issuedInstType_0::SimdAes                0      0.00%     78.39% # Number of instructions issued per FU type, per thread (Count)
system.cpu.issuedInstType_0::SimdAesMix             0      0.00%     78.39% # Number of instructions issued per FU type, per thread (Count)
system.cpu.issuedInstType_0::SimdSha1Hash            0      0.00%     78.39% # Number of instructions issued per FU type, per thread (Count)
system.cpu.issuedInstType_0::SimdSha1Hash2            0      0.00%     78.39% # Number of instructions issued per FU type, per thread (Count)
system.cpu.issuedInstType_0::SimdSha256Hash            0      0.00%     78.39% # Number of instructions issued per FU type, per thread (Count)
system.cpu.issuedInstType_0::SimdSha256Hash2            0      0.00%     78.39% # Number of instructions issued per FU type, per thread (Count)
system.cpu.issuedInstType_0::SimdShaSigma2            0      0.00%     78.39% # Number of instructions issued per FU type, per thread (Count)
system.cpu.issuedInstType_0::SimdShaSigma3            0      0.00%     78.39% # Number of instructions issued per FU type, per thread (Count)
system.cpu.issuedInstType_0::SimdSha3               0      0.00%     78.39% # Number of instructions issued per FU type, per thread (Count)
system.cpu.issuedInstType_0::SimdSm4e               0      0.00%     78.39% # Number of instructions issued per FU type, per thread (Count)
system.cpu.issuedInstType_0::SimdCrc                0      0.00%     78.39% # Number of instructions issued per FU type, per thread (Count)
system.cpu.issuedInstType_0::SimdPredAlu            0      0.00%     78.39% # Number of instructions issued per FU type, per thread (Count)
system.cpu.issuedInstType_0::SimdDotProd            0      0.00%     78.39% # Number of instructions issued per FU type, per thread (Count)
system.cpu.issuedInstType_0::Matrix                 0      0.00%     78.39% # Number of instructions issued per FU type, per thread (Count)
system.cpu.issuedInstType_0::MatrixMov              0      0.00%     78.39% # Number of instructions issued per FU type, per thread (Count)
system.cpu.issuedInstType_0::MatrixOP               0      0.00%     78.39% # Number of instructions issued per FU type, per thread (Count)
system.cpu.issuedInstType_0::MemRead            35091     14.52%     92.91% # Number of instructions issued per FU type, per thread (Count)
system.cpu.issuedInstType_0::MemWrite           14722      6.09%     99.00% # Number of instructions issued per FU type, per thread (Count)
system.cpu.issuedInstType_0::FloatMemRead         1213      0.50%     99.51% # Number of instructions issued per FU type, per thread (Count)
system.cpu.issuedInstType_0::FloatMemWrite         1193      0.49%    100.00% # Number of instructions issued per FU type, per thread (Count)
system.cpu.issuedInstType_0::InstPrefetch            0      0.00%    100.00% # Number of instructions issued per FU type, per thread (Count)
system.cpu.issuedInstType_0::SimdUnitStrideLoad            0      0.00%    100.00% # Number of instructions issued per FU type, per thread (Count)
system.cpu.issuedInstType_0::SimdUnitStrideStore            0      0.00%    100.00% # Number of instructions issued per FU type, per thread (Count)
system.cpu.issuedInstType_0::SimdUnitStrideMaskLoad            0      0.00%    100.00% # Number of instructions issued per FU type, per thread (Count)
system.cpu.issuedInstType_0::SimdUnitStrideMaskStore            0      0.00%    100.00% # Number of instructions issued per FU type, per thread (Count)
system.cpu.issuedInstType_0::SimdStridedLoad            0      0.00%    100.00% # Number of instructions issued per FU type, per thread (Count)
system.cpu.issuedInstType_0::SimdStridedStore            0      0.00%    100.00% # Number of instructions issued per FU type, per thread (Count)
system.cpu.issuedInstType_0::SimdIndexedLoad            0      0.00%    100.00% # Number of instructions issued per FU type, per thread (Count)
system.cpu.issuedInstType_0::SimdIndexedStore            0      0.00%    100.00% # Number of instructions issued per FU type, per thread (Count)
system.cpu.issuedInstType_0::SimdWholeRegisterLoad            0      0.00%    100.00% # Number of instructions issued per FU type, per thread (Count)
system.cpu.issuedInstType_0::SimdWholeRegisterStore            0      0.00%    100.00% # Number of instructions issued per FU type, per thread (Count)
system.cpu.issuedInstType_0::SimdUnitStrideFaultOnlyFirstLoad            0      0.00%    100.00% # Number of instructions issued per FU type, per thread (Count)
system.cpu.issuedInstType_0::SimdUnitStrideSegmentedLoad            0      0.00%    100.00% # Number of instructions issued per FU type, per thread (Count)
system.cpu.issuedInstType_0::SimdUnitStrideSegmentedStore            0      0.00%    100.00% # Number of instructions issued per FU type, per thread (Count)
system.cpu.issuedInstType_0::SimdUnitStrideSegmentedFaultOnlyFirstLoad            0      0.00%    100.00% # Number of instructions issued per FU type, per thread (Count)
system.cpu.issuedInstType_0::SimdStrideSegmentedLoad            0      0.00%    100.00% # Number of instructions issued per FU type, per thread (Count)
system.cpu.issuedInstType_0::SimdStrideSegmentedStore            0      0.00%    100.00% # Number of instructions issued per FU type, per thread (Count)
system.cpu.issuedInstType_0::SimdExt                0      0.00%    100.00% # Number of instructions issued per FU type, per thread (Count)
system.cpu.issuedInstType_0::SimdFloatExt            0      0.00%    100.00% # Number of instructions issued per FU type, per thread (Count)
system.cpu.issuedInstType_0::SimdConfig             0      0.00%    100.00% # Number of instructions issued per FU type, per thread (Count)
system.cpu.issuedInstType_0::SimdBf16Add            0      0.00%    100.00% # Number of instructions issued per FU type, per thread (Count)
system.cpu.issuedInstType_0::SimdBf16Cmp            0      0.00%    100.00% # Number of instructions issued per FU type, per thread (Count)
system.cpu.issuedInstType_0::SimdBf16Cvt            0      0.00%    100.00% # Number of instructions issued per FU type, per thread (Count)
system.cpu.issuedInstType_0::SimdBf16DotProd            0      0.00%    100.00% # Number of instructions issued per FU type, per thread (Count)
system.cpu.issuedInstType_0::SimdBf16MatMultAcc            0      0.00%    100.00% # Number of instructions issued per FU type, per thread (Count)
system.cpu.issuedInstType_0::SimdBf16Mult            0      0.00%    100.00% # Number of instructions issued per FU type, per thread (Count)
system.cpu.issuedInstType_0::SimdBf16MultAcc            0      0.00%    100.00% # Number of instructions issued per FU type, per thread (Count)
system.cpu.issuedInstType_0::Bf16Cvt                0      0.00%    100.00% # Number of instructions issued per FU type, per thread (Count)
system.cpu.issuedInstType_0::System                 0      0.00%    100.00% # Number of instructions issued per FU type, per thread (Count)
system.cpu.issuedInstType_0::total             241639                       # Number of instructions issued per FU type, per thread (Count)
system.cpu.issuedInstType_1::No_OpClass          1884      0.78%      0.78% # Number of instructions issued per FU type, per thread (Count)
system.cpu.issuedInstType_1::IntAlu            180368     74.91%     75.69% # Number of instructions issued per FU type, per thread (Count)
system.cpu.issuedInstType_1::IntMult              754      0.31%     76.01% # Number of instructions issued per FU type, per thread (Count)
system.cpu.issuedInstType_1::IntDiv              1490      0.62%     76.63% # Number of instructions issued per FU type, per thread (Count)
system.cpu.issuedInstType_1::FloatAdd             623      0.26%     76.88% # Number of instructions issued per FU type, per thread (Count)
system.cpu.issuedInstType_1::FloatCmp               0      0.00%     76.88% # Number of instructions issued per FU type, per thread (Count)
system.cpu.issuedInstType_1::FloatCvt               0      0.00%     76.88% # Number of instructions issued per FU type, per thread (Count)
system.cpu.issuedInstType_1::FloatMult              0      0.00%     76.88% # Number of instructions issued per FU type, per thread (Count)
system.cpu.issuedInstType_1::FloatMultAcc            0      0.00%     76.88% # Number of instructions issued per FU type, per thread (Count)
system.cpu.issuedInstType_1::FloatDiv               0      0.00%     76.88% # Number of instructions issued per FU type, per thread (Count)
system.cpu.issuedInstType_1::FloatMisc              0      0.00%     76.88% # Number of instructions issued per FU type, per thread (Count)
system.cpu.issuedInstType_1::FloatSqrt              0      0.00%     76.88% # Number of instructions issued per FU type, per thread (Count)
system.cpu.issuedInstType_1::SimdAdd              398      0.17%     77.05% # Number of instructions issued per FU type, per thread (Count)
system.cpu.issuedInstType_1::SimdAddAcc             0      0.00%     77.05% # Number of instructions issued per FU type, per thread (Count)
system.cpu.issuedInstType_1::SimdAlu             1236      0.51%     77.56% # Number of instructions issued per FU type, per thread (Count)
system.cpu.issuedInstType_1::SimdCmp                2      0.00%     77.56% # Number of instructions issued per FU type, per thread (Count)
system.cpu.issuedInstType_1::SimdCvt              925      0.38%     77.95% # Number of instructions issued per FU type, per thread (Count)
system.cpu.issuedInstType_1::SimdMisc             969      0.40%     78.35% # Number of instructions issued per FU type, per thread (Count)
system.cpu.issuedInstType_1::SimdMult               0      0.00%     78.35% # Number of instructions issued per FU type, per thread (Count)
system.cpu.issuedInstType_1::SimdMultAcc            0      0.00%     78.35% # Number of instructions issued per FU type, per thread (Count)
system.cpu.issuedInstType_1::SimdMatMultAcc            0      0.00%     78.35% # Number of instructions issued per FU type, per thread (Count)
system.cpu.issuedInstType_1::SimdShift            284      0.12%     78.47% # Number of instructions issued per FU type, per thread (Count)
system.cpu.issuedInstType_1::SimdShiftAcc            0      0.00%     78.47% # Number of instructions issued per FU type, per thread (Count)
system.cpu.issuedInstType_1::SimdDiv                0      0.00%     78.47% # Number of instructions issued per FU type, per thread (Count)
system.cpu.issuedInstType_1::SimdSqrt               0      0.00%     78.47% # Number of instructions issued per FU type, per thread (Count)
system.cpu.issuedInstType_1::SimdFloatAdd            0      0.00%     78.47% # Number of instructions issued per FU type, per thread (Count)
system.cpu.issuedInstType_1::SimdFloatAlu            0      0.00%     78.47% # Number of instructions issued per FU type, per thread (Count)
system.cpu.issuedInstType_1::SimdFloatCmp            0      0.00%     78.47% # Number of instructions issued per FU type, per thread (Count)
system.cpu.issuedInstType_1::SimdFloatCvt            0      0.00%     78.47% # Number of instructions issued per FU type, per thread (Count)
system.cpu.issuedInstType_1::SimdFloatDiv            0      0.00%     78.47% # Number of instructions issued per FU type, per thread (Count)
system.cpu.issuedInstType_1::SimdFloatMisc            0      0.00%     78.47% # Number of instructions issued per FU type, per thread (Count)
system.cpu.issuedInstType_1::SimdFloatMult            0      0.00%     78.47% # Number of instructions issued per FU type, per thread (Count)
system.cpu.issuedInstType_1::SimdFloatMultAcc            0      0.00%     78.47% # Number of instructions issued per FU type, per thread (Count)
system.cpu.issuedInstType_1::SimdFloatMatMultAcc            0      0.00%     78.47% # Number of instructions issued per FU type, per thread (Count)
system.cpu.issuedInstType_1::SimdFloatSqrt            0      0.00%     78.47% # Number of instructions issued per FU type, per thread (Count)
system.cpu.issuedInstType_1::SimdReduceAdd            0      0.00%     78.47% # Number of instructions issued per FU type, per thread (Count)
system.cpu.issuedInstType_1::SimdReduceAlu            0      0.00%     78.47% # Number of instructions issued per FU type, per thread (Count)
system.cpu.issuedInstType_1::SimdReduceCmp            0      0.00%     78.47% # Number of instructions issued per FU type, per thread (Count)
system.cpu.issuedInstType_1::SimdFloatReduceAdd            0      0.00%     78.47% # Number of instructions issued per FU type, per thread (Count)
system.cpu.issuedInstType_1::SimdFloatReduceCmp            0      0.00%     78.47% # Number of instructions issued per FU type, per thread (Count)
system.cpu.issuedInstType_1::SimdAes                0      0.00%     78.47% # Number of instructions issued per FU type, per thread (Count)
system.cpu.issuedInstType_1::SimdAesMix             0      0.00%     78.47% # Number of instructions issued per FU type, per thread (Count)
system.cpu.issuedInstType_1::SimdSha1Hash            0      0.00%     78.47% # Number of instructions issued per FU type, per thread (Count)
system.cpu.issuedInstType_1::SimdSha1Hash2            0      0.00%     78.47% # Number of instructions issued per FU type, per thread (Count)
system.cpu.issuedInstType_1::SimdSha256Hash            0      0.00%     78.47% # Number of instructions issued per FU type, per thread (Count)
system.cpu.issuedInstType_1::SimdSha256Hash2            0      0.00%     78.47% # Number of instructions issued per FU type, per thread (Count)
system.cpu.issuedInstType_1::SimdShaSigma2            0      0.00%     78.47% # Number of instructions issued per FU type, per thread (Count)
system.cpu.issuedInstType_1::SimdShaSigma3            0      0.00%     78.47% # Number of instructions issued per FU type, per thread (Count)
system.cpu.issuedInstType_1::SimdSha3               0      0.00%     78.47% # Number of instructions issued per FU type, per thread (Count)
system.cpu.issuedInstType_1::SimdSm4e               0      0.00%     78.47% # Number of instructions issued per FU type, per thread (Count)
system.cpu.issuedInstType_1::SimdCrc                0      0.00%     78.47% # Number of instructions issued per FU type, per thread (Count)
system.cpu.issuedInstType_1::SimdPredAlu            0      0.00%     78.47% # Number of instructions issued per FU type, per thread (Count)
system.cpu.issuedInstType_1::SimdDotProd            0      0.00%     78.47% # Number of instructions issued per FU type, per thread (Count)
system.cpu.issuedInstType_1::Matrix                 0      0.00%     78.47% # Number of instructions issued per FU type, per thread (Count)
system.cpu.issuedInstType_1::MatrixMov              0      0.00%     78.47% # Number of instructions issued per FU type, per thread (Count)
system.cpu.issuedInstType_1::MatrixOP               0      0.00%     78.47% # Number of instructions issued per FU type, per thread (Count)
system.cpu.issuedInstType_1::MemRead            34900     14.49%     92.96% # Number of instructions issued per FU type, per thread (Count)
system.cpu.issuedInstType_1::MemWrite           14581      6.06%     99.02% # Number of instructions issued per FU type, per thread (Count)
system.cpu.issuedInstType_1::FloatMemRead         1153      0.48%     99.50% # Number of instructions issued per FU type, per thread (Count)
system.cpu.issuedInstType_1::FloatMemWrite         1210      0.50%    100.00% # Number of instructions issued per FU type, per thread (Count)
system.cpu.issuedInstType_1::InstPrefetch            0      0.00%    100.00% # Number of instructions issued per FU type, per thread (Count)
system.cpu.issuedInstType_1::SimdUnitStrideLoad            0      0.00%    100.00% # Number of instructions issued per FU type, per thread (Count)
system.cpu.issuedInstType_1::SimdUnitStrideStore            0      0.00%    100.00% # Number of instructions issued per FU type, per thread (Count)
system.cpu.issuedInstType_1::SimdUnitStrideMaskLoad            0      0.00%    100.00% # Number of instructions issued per FU type, per thread (Count)
system.cpu.issuedInstType_1::SimdUnitStrideMaskStore            0      0.00%    100.00% # Number of instructions issued per FU type, per thread (Count)
system.cpu.issuedInstType_1::SimdStridedLoad            0      0.00%    100.00% # Number of instructions issued per FU type, per thread (Count)
system.cpu.issuedInstType_1::SimdStridedStore            0      0.00%    100.00% # Number of instructions issued per FU type, per thread (Count)
system.cpu.issuedInstType_1::SimdIndexedLoad            0      0.00%    100.00% # Number of instructions issued per FU type, per thread (Count)
system.cpu.issuedInstType_1::SimdIndexedStore            0      0.00%    100.00% # Number of instructions issued per FU type, per thread (Count)
system.cpu.issuedInstType_1::SimdWholeRegisterLoad            0      0.00%    100.00% # Number of instructions issued per FU type, per thread (Count)
system.cpu.issuedInstType_1::SimdWholeRegisterStore            0      0.00%    100.00% # Number of instructions issued per FU type, per thread (Count)
system.cpu.issuedInstType_1::SimdUnitStrideFaultOnlyFirstLoad            0      0.00%    100.00% # Number of instructions issued per FU type, per thread (Count)
system.cpu.issuedInstType_1::SimdUnitStrideSegmentedLoad            0      0.00%    100.00% # Number of instructions issued per FU type, per thread (Count)
system.cpu.issuedInstType_1::SimdUnitStrideSegmentedStore            0      0.00%    100.00% # Number of instructions issued per FU type, per thread (Count)
system.cpu.issuedInstType_1::SimdUnitStrideSegmentedFaultOnlyFirstLoad            0      0.00%    100.00% # Number of instructions issued per FU type, per thread (Count)
system.cpu.issuedInstType_1::SimdStrideSegmentedLoad            0      0.00%    100.00% # Number of instructions issued per FU type, per thread (Count)
system.cpu.issuedInstType_1::SimdStrideSegmentedStore            0      0.00%    100.00% # Number of instructions issued per FU type, per thread (Count)
system.cpu.issuedInstType_1::SimdExt                0      0.00%    100.00% # Number of instructions issued per FU type, per thread (Count)
system.cpu.issuedInstType_1::SimdFloatExt            0      0.00%    100.00% # Number of instructions issued per FU type, per thread (Count)
system.cpu.issuedInstType_1::SimdConfig             0      0.00%    100.00% # Number of instructions issued per FU type, per thread (Count)
system.cpu.issuedInstType_1::SimdBf16Add            0      0.00%    100.00% # Number of instructions issued per FU type, per thread (Count)
system.cpu.issuedInstType_1::SimdBf16Cmp            0      0.00%    100.00% # Number of instructions issued per FU type, per thread (Count)
system.cpu.issuedInstType_1::SimdBf16Cvt            0      0.00%    100.00% # Number of instructions issued per FU type, per thread (Count)
system.cpu.issuedInstType_1::SimdBf16DotProd            0      0.00%    100.00% # Number of instructions issued per FU type, per thread (Count)
system.cpu.issuedInstType_1::SimdBf16MatMultAcc            0      0.00%    100.00% # Number of instructions issued per FU type, per thread (Count)
system.cpu.issuedInstType_1::SimdBf16Mult            0      0.00%    100.00% # Number of instructions issued per FU type, per thread (Count)
system.cpu.issuedInstType_1::SimdBf16MultAcc            0      0.00%    100.00% # Number of instructions issued per FU type, per thread (Count)
system.cpu.issuedInstType_1::Bf16Cvt                0      0.00%    100.00% # Number of instructions issued per FU type, per thread (Count)
system.cpu.issuedInstType_1::System                 0      0.00%    100.00% # Number of instructions issued per FU type, per thread (Count)
system.cpu.issuedInstType_1::total             240777                       # Number of instructions issued per FU type, per thread (Count)
system.cpu.issuedInstType_2::No_OpClass          1897      0.79%      0.79% # Number of instructions issued per FU type, per thread (Count)
system.cpu.issuedInstType_2::IntAlu            180829     74.91%     75.69% # Number of instructions issued per FU type, per thread (Count)
system.cpu.issuedInstType_2::IntMult              755      0.31%     76.00% # Number of instructions issued per FU type, per thread (Count)
system.cpu.issuedInstType_2::IntDiv              1470      0.61%     76.61% # Number of instructions issued per FU type, per thread (Count)
system.cpu.issuedInstType_2::FloatAdd             637      0.26%     76.88% # Number of instructions issued per FU type, per thread (Count)
system.cpu.issuedInstType_2::FloatCmp               0      0.00%     76.88% # Number of instructions issued per FU type, per thread (Count)
system.cpu.issuedInstType_2::FloatCvt               0      0.00%     76.88% # Number of instructions issued per FU type, per thread (Count)
system.cpu.issuedInstType_2::FloatMult              0      0.00%     76.88% # Number of instructions issued per FU type, per thread (Count)
system.cpu.issuedInstType_2::FloatMultAcc            0      0.00%     76.88% # Number of instructions issued per FU type, per thread (Count)
system.cpu.issuedInstType_2::FloatDiv               0      0.00%     76.88% # Number of instructions issued per FU type, per thread (Count)
system.cpu.issuedInstType_2::FloatMisc              0      0.00%     76.88% # Number of instructions issued per FU type, per thread (Count)
system.cpu.issuedInstType_2::FloatSqrt              0      0.00%     76.88% # Number of instructions issued per FU type, per thread (Count)
system.cpu.issuedInstType_2::SimdAdd              409      0.17%     77.05% # Number of instructions issued per FU type, per thread (Count)
system.cpu.issuedInstType_2::SimdAddAcc             0      0.00%     77.05% # Number of instructions issued per FU type, per thread (Count)
system.cpu.issuedInstType_2::SimdAlu             1298      0.54%     77.58% # Number of instructions issued per FU type, per thread (Count)
system.cpu.issuedInstType_2::SimdCmp                2      0.00%     77.58% # Number of instructions issued per FU type, per thread (Count)
system.cpu.issuedInstType_2::SimdCvt              943      0.39%     77.98% # Number of instructions issued per FU type, per thread (Count)
system.cpu.issuedInstType_2::SimdMisc             967      0.40%     78.38% # Number of instructions issued per FU type, per thread (Count)
system.cpu.issuedInstType_2::SimdMult               0      0.00%     78.38% # Number of instructions issued per FU type, per thread (Count)
system.cpu.issuedInstType_2::SimdMultAcc            0      0.00%     78.38% # Number of instructions issued per FU type, per thread (Count)
system.cpu.issuedInstType_2::SimdMatMultAcc            0      0.00%     78.38% # Number of instructions issued per FU type, per thread (Count)
system.cpu.issuedInstType_2::SimdShift            295      0.12%     78.50% # Number of instructions issued per FU type, per thread (Count)
system.cpu.issuedInstType_2::SimdShiftAcc            0      0.00%     78.50% # Number of instructions issued per FU type, per thread (Count)
system.cpu.issuedInstType_2::SimdDiv                0      0.00%     78.50% # Number of instructions issued per FU type, per thread (Count)
system.cpu.issuedInstType_2::SimdSqrt               0      0.00%     78.50% # Number of instructions issued per FU type, per thread (Count)
system.cpu.issuedInstType_2::SimdFloatAdd            0      0.00%     78.50% # Number of instructions issued per FU type, per thread (Count)
system.cpu.issuedInstType_2::SimdFloatAlu            0      0.00%     78.50% # Number of instructions issued per FU type, per thread (Count)
system.cpu.issuedInstType_2::SimdFloatCmp            0      0.00%     78.50% # Number of instructions issued per FU type, per thread (Count)
system.cpu.issuedInstType_2::SimdFloatCvt            0      0.00%     78.50% # Number of instructions issued per FU type, per thread (Count)
system.cpu.issuedInstType_2::SimdFloatDiv            0      0.00%     78.50% # Number of instructions issued per FU type, per thread (Count)
system.cpu.issuedInstType_2::SimdFloatMisc            0      0.00%     78.50% # Number of instructions issued per FU type, per thread (Count)
system.cpu.issuedInstType_2::SimdFloatMult            0      0.00%     78.50% # Number of instructions issued per FU type, per thread (Count)
system.cpu.issuedInstType_2::SimdFloatMultAcc            0      0.00%     78.50% # Number of instructions issued per FU type, per thread (Count)
system.cpu.issuedInstType_2::SimdFloatMatMultAcc            0      0.00%     78.50% # Number of instructions issued per FU type, per thread (Count)
system.cpu.issuedInstType_2::SimdFloatSqrt            0      0.00%     78.50% # Number of instructions issued per FU type, per thread (Count)
system.cpu.issuedInstType_2::SimdReduceAdd            0      0.00%     78.50% # Number of instructions issued per FU type, per thread (Count)
system.cpu.issuedInstType_2::SimdReduceAlu            0      0.00%     78.50% # Number of instructions issued per FU type, per thread (Count)
system.cpu.issuedInstType_2::SimdReduceCmp            0      0.00%     78.50% # Number of instructions issued per FU type, per thread (Count)
system.cpu.issuedInstType_2::SimdFloatReduceAdd            0      0.00%     78.50% # Number of instructions issued per FU type, per thread (Count)
system.cpu.issuedInstType_2::SimdFloatReduceCmp            0      0.00%     78.50% # Number of instructions issued per FU type, per thread (Count)
system.cpu.issuedInstType_2::SimdAes                0      0.00%     78.50% # Number of instructions issued per FU type, per thread (Count)
system.cpu.issuedInstType_2::SimdAesMix             0      0.00%     78.50% # Number of instructions issued per FU type, per thread (Count)
system.cpu.issuedInstType_2::SimdSha1Hash            0      0.00%     78.50% # Number of instructions issued per FU type, per thread (Count)
system.cpu.issuedInstType_2::SimdSha1Hash2            0      0.00%     78.50% # Number of instructions issued per FU type, per thread (Count)
system.cpu.issuedInstType_2::SimdSha256Hash            0      0.00%     78.50% # Number of instructions issued per FU type, per thread (Count)
system.cpu.issuedInstType_2::SimdSha256Hash2            0      0.00%     78.50% # Number of instructions issued per FU type, per thread (Count)
system.cpu.issuedInstType_2::SimdShaSigma2            0      0.00%     78.50% # Number of instructions issued per FU type, per thread (Count)
system.cpu.issuedInstType_2::SimdShaSigma3            0      0.00%     78.50% # Number of instructions issued per FU type, per thread (Count)
system.cpu.issuedInstType_2::SimdSha3               0      0.00%     78.50% # Number of instructions issued per FU type, per thread (Count)
system.cpu.issuedInstType_2::SimdSm4e               0      0.00%     78.50% # Number of instructions issued per FU type, per thread (Count)
system.cpu.issuedInstType_2::SimdCrc                0      0.00%     78.50% # Number of instructions issued per FU type, per thread (Count)
system.cpu.issuedInstType_2::SimdPredAlu            0      0.00%     78.50% # Number of instructions issued per FU type, per thread (Count)
system.cpu.issuedInstType_2::SimdDotProd            0      0.00%     78.50% # Number of instructions issued per FU type, per thread (Count)
system.cpu.issuedInstType_2::Matrix                 0      0.00%     78.50% # Number of instructions issued per FU type, per thread (Count)
system.cpu.issuedInstType_2::MatrixMov              0      0.00%     78.50% # Number of instructions issued per FU type, per thread (Count)
system.cpu.issuedInstType_2::MatrixOP               0      0.00%     78.50% # Number of instructions issued per FU type, per thread (Count)
system.cpu.issuedInstType_2::MemRead            34922     14.47%     92.96% # Number of instructions issued per FU type, per thread (Count)
system.cpu.issuedInstType_2::MemWrite           14595      6.05%     99.01% # Number of instructions issued per FU type, per thread (Count)
system.cpu.issuedInstType_2::FloatMemRead         1180      0.49%     99.50% # Number of instructions issued per FU type, per thread (Count)
system.cpu.issuedInstType_2::FloatMemWrite         1211      0.50%    100.00% # Number of instructions issued per FU type, per thread (Count)
system.cpu.issuedInstType_2::InstPrefetch            0      0.00%    100.00% # Number of instructions issued per FU type, per thread (Count)
system.cpu.issuedInstType_2::SimdUnitStrideLoad            0      0.00%    100.00% # Number of instructions issued per FU type, per thread (Count)
system.cpu.issuedInstType_2::SimdUnitStrideStore            0      0.00%    100.00% # Number of instructions issued per FU type, per thread (Count)
system.cpu.issuedInstType_2::SimdUnitStrideMaskLoad            0      0.00%    100.00% # Number of instructions issued per FU type, per thread (Count)
system.cpu.issuedInstType_2::SimdUnitStrideMaskStore            0      0.00%    100.00% # Number of instructions issued per FU type, per thread (Count)
system.cpu.issuedInstType_2::SimdStridedLoad            0      0.00%    100.00% # Number of instructions issued per FU type, per thread (Count)
system.cpu.issuedInstType_2::SimdStridedStore            0      0.00%    100.00% # Number of instructions issued per FU type, per thread (Count)
system.cpu.issuedInstType_2::SimdIndexedLoad            0      0.00%    100.00% # Number of instructions issued per FU type, per thread (Count)
system.cpu.issuedInstType_2::SimdIndexedStore            0      0.00%    100.00% # Number of instructions issued per FU type, per thread (Count)
system.cpu.issuedInstType_2::SimdWholeRegisterLoad            0      0.00%    100.00% # Number of instructions issued per FU type, per thread (Count)
system.cpu.issuedInstType_2::SimdWholeRegisterStore            0      0.00%    100.00% # Number of instructions issued per FU type, per thread (Count)
system.cpu.issuedInstType_2::SimdUnitStrideFaultOnlyFirstLoad            0      0.00%    100.00% # Number of instructions issued per FU type, per thread (Count)
system.cpu.issuedInstType_2::SimdUnitStrideSegmentedLoad            0      0.00%    100.00% # Number of instructions issued per FU type, per thread (Count)
system.cpu.issuedInstType_2::SimdUnitStrideSegmentedStore            0      0.00%    100.00% # Number of instructions issued per FU type, per thread (Count)
system.cpu.issuedInstType_2::SimdUnitStrideSegmentedFaultOnlyFirstLoad            0      0.00%    100.00% # Number of instructions issued per FU type, per thread (Count)
system.cpu.issuedInstType_2::SimdStrideSegmentedLoad            0      0.00%    100.00% # Number of instructions issued per FU type, per thread (Count)
system.cpu.issuedInstType_2::SimdStrideSegmentedStore            0      0.00%    100.00% # Number of instructions issued per FU type, per thread (Count)
system.cpu.issuedInstType_2::SimdExt                0      0.00%    100.00% # Number of instructions issued per FU type, per thread (Count)
system.cpu.issuedInstType_2::SimdFloatExt            0      0.00%    100.00% # Number of instructions issued per FU type, per thread (Count)
system.cpu.issuedInstType_2::SimdConfig             0      0.00%    100.00% # Number of instructions issued per FU type, per thread (Count)
system.cpu.issuedInstType_2::SimdBf16Add            0      0.00%    100.00% # Number of instructions issued per FU type, per thread (Count)
system.cpu.issuedInstType_2::SimdBf16Cmp            0      0.00%    100.00% # Number of instructions issued per FU type, per thread (Count)
system.cpu.issuedInstType_2::SimdBf16Cvt            0      0.00%    100.00% # Number of instructions issued per FU type, per thread (Count)
system.cpu.issuedInstType_2::SimdBf16DotProd            0      0.00%    100.00% # Number of instructions issued per FU type, per thread (Count)
system.cpu.issuedInstType_2::SimdBf16MatMultAcc            0      0.00%    100.00% # Number of instructions issued per FU type, per thread (Count)
system.cpu.issuedInstType_2::SimdBf16Mult            0      0.00%    100.00% # Number of instructions issued per FU type, per thread (Count)
system.cpu.issuedInstType_2::SimdBf16MultAcc            0      0.00%    100.00% # Number of instructions issued per FU type, per thread (Count)
system.cpu.issuedInstType_2::Bf16Cvt                0      0.00%    100.00% # Number of instructions issued per FU type, per thread (Count)
system.cpu.issuedInstType_2::System                 0      0.00%    100.00% # Number of instructions issued per FU type, per thread (Count)
system.cpu.issuedInstType_2::total             241410                       # Number of instructions issued per FU type, per thread (Count)
system.cpu.issuedInstType_3::No_OpClass          1919      0.79%      0.79% # Number of instructions issued per FU type, per thread (Count)
system.cpu.issuedInstType_3::IntAlu            182400     74.96%     75.75% # Number of instructions issued per FU type, per thread (Count)
system.cpu.issuedInstType_3::IntMult              758      0.31%     76.06% # Number of instructions issued per FU type, per thread (Count)
system.cpu.issuedInstType_3::IntDiv              1507      0.62%     76.68% # Number of instructions issued per FU type, per thread (Count)
system.cpu.issuedInstType_3::FloatAdd             636      0.26%     76.94% # Number of instructions issued per FU type, per thread (Count)
system.cpu.issuedInstType_3::FloatCmp               0      0.00%     76.94% # Number of instructions issued per FU type, per thread (Count)
system.cpu.issuedInstType_3::FloatCvt               0      0.00%     76.94% # Number of instructions issued per FU type, per thread (Count)
system.cpu.issuedInstType_3::FloatMult              0      0.00%     76.94% # Number of instructions issued per FU type, per thread (Count)
system.cpu.issuedInstType_3::FloatMultAcc            0      0.00%     76.94% # Number of instructions issued per FU type, per thread (Count)
system.cpu.issuedInstType_3::FloatDiv               0      0.00%     76.94% # Number of instructions issued per FU type, per thread (Count)
system.cpu.issuedInstType_3::FloatMisc              0      0.00%     76.94% # Number of instructions issued per FU type, per thread (Count)
system.cpu.issuedInstType_3::FloatSqrt              0      0.00%     76.94% # Number of instructions issued per FU type, per thread (Count)
system.cpu.issuedInstType_3::SimdAdd              402      0.17%     77.10% # Number of instructions issued per FU type, per thread (Count)
system.cpu.issuedInstType_3::SimdAddAcc             0      0.00%     77.10% # Number of instructions issued per FU type, per thread (Count)
system.cpu.issuedInstType_3::SimdAlu             1350      0.55%     77.66% # Number of instructions issued per FU type, per thread (Count)
system.cpu.issuedInstType_3::SimdCmp                2      0.00%     77.66% # Number of instructions issued per FU type, per thread (Count)
system.cpu.issuedInstType_3::SimdCvt              929      0.38%     78.04% # Number of instructions issued per FU type, per thread (Count)
system.cpu.issuedInstType_3::SimdMisc             973      0.40%     78.44% # Number of instructions issued per FU type, per thread (Count)
system.cpu.issuedInstType_3::SimdMult               0      0.00%     78.44% # Number of instructions issued per FU type, per thread (Count)
system.cpu.issuedInstType_3::SimdMultAcc            0      0.00%     78.44% # Number of instructions issued per FU type, per thread (Count)
system.cpu.issuedInstType_3::SimdMatMultAcc            0      0.00%     78.44% # Number of instructions issued per FU type, per thread (Count)
system.cpu.issuedInstType_3::SimdShift            286      0.12%     78.56% # Number of instructions issued per FU type, per thread (Count)
system.cpu.issuedInstType_3::SimdShiftAcc            0      0.00%     78.56% # Number of instructions issued per FU type, per thread (Count)
system.cpu.issuedInstType_3::SimdDiv                0      0.00%     78.56% # Number of instructions issued per FU type, per thread (Count)
system.cpu.issuedInstType_3::SimdSqrt               0      0.00%     78.56% # Number of instructions issued per FU type, per thread (Count)
system.cpu.issuedInstType_3::SimdFloatAdd            0      0.00%     78.56% # Number of instructions issued per FU type, per thread (Count)
system.cpu.issuedInstType_3::SimdFloatAlu            0      0.00%     78.56% # Number of instructions issued per FU type, per thread (Count)
system.cpu.issuedInstType_3::SimdFloatCmp            0      0.00%     78.56% # Number of instructions issued per FU type, per thread (Count)
system.cpu.issuedInstType_3::SimdFloatCvt            0      0.00%     78.56% # Number of instructions issued per FU type, per thread (Count)
system.cpu.issuedInstType_3::SimdFloatDiv            0      0.00%     78.56% # Number of instructions issued per FU type, per thread (Count)
system.cpu.issuedInstType_3::SimdFloatMisc            0      0.00%     78.56% # Number of instructions issued per FU type, per thread (Count)
system.cpu.issuedInstType_3::SimdFloatMult            0      0.00%     78.56% # Number of instructions issued per FU type, per thread (Count)
system.cpu.issuedInstType_3::SimdFloatMultAcc            0      0.00%     78.56% # Number of instructions issued per FU type, per thread (Count)
system.cpu.issuedInstType_3::SimdFloatMatMultAcc            0      0.00%     78.56% # Number of instructions issued per FU type, per thread (Count)
system.cpu.issuedInstType_3::SimdFloatSqrt            0      0.00%     78.56% # Number of instructions issued per FU type, per thread (Count)
system.cpu.issuedInstType_3::SimdReduceAdd            0      0.00%     78.56% # Number of instructions issued per FU type, per thread (Count)
system.cpu.issuedInstType_3::SimdReduceAlu            0      0.00%     78.56% # Number of instructions issued per FU type, per thread (Count)
system.cpu.issuedInstType_3::SimdReduceCmp            0      0.00%     78.56% # Number of instructions issued per FU type, per thread (Count)
system.cpu.issuedInstType_3::SimdFloatReduceAdd            0      0.00%     78.56% # Number of instructions issued per FU type, per thread (Count)
system.cpu.issuedInstType_3::SimdFloatReduceCmp            0      0.00%     78.56% # Number of instructions issued per FU type, per thread (Count)
system.cpu.issuedInstType_3::SimdAes                0      0.00%     78.56% # Number of instructions issued per FU type, per thread (Count)
system.cpu.issuedInstType_3::SimdAesMix             0      0.00%     78.56% # Number of instructions issued per FU type, per thread (Count)
system.cpu.issuedInstType_3::SimdSha1Hash            0      0.00%     78.56% # Number of instructions issued per FU type, per thread (Count)
system.cpu.issuedInstType_3::SimdSha1Hash2            0      0.00%     78.56% # Number of instructions issued per FU type, per thread (Count)
system.cpu.issuedInstType_3::SimdSha256Hash            0      0.00%     78.56% # Number of instructions issued per FU type, per thread (Count)
system.cpu.issuedInstType_3::SimdSha256Hash2            0      0.00%     78.56% # Number of instructions issued per FU type, per thread (Count)
system.cpu.issuedInstType_3::SimdShaSigma2            0      0.00%     78.56% # Number of instructions issued per FU type, per thread (Count)
system.cpu.issuedInstType_3::SimdShaSigma3            0      0.00%     78.56% # Number of instructions issued per FU type, per thread (Count)
system.cpu.issuedInstType_3::SimdSha3               0      0.00%     78.56% # Number of instructions issued per FU type, per thread (Count)
system.cpu.issuedInstType_3::SimdSm4e               0      0.00%     78.56% # Number of instructions issued per FU type, per thread (Count)
system.cpu.issuedInstType_3::SimdCrc                0      0.00%     78.56% # Number of instructions issued per FU type, per thread (Count)
system.cpu.issuedInstType_3::SimdPredAlu            0      0.00%     78.56% # Number of instructions issued per FU type, per thread (Count)
system.cpu.issuedInstType_3::SimdDotProd            0      0.00%     78.56% # Number of instructions issued per FU type, per thread (Count)
system.cpu.issuedInstType_3::Matrix                 0      0.00%     78.56% # Number of instructions issued per FU type, per thread (Count)
system.cpu.issuedInstType_3::MatrixMov              0      0.00%     78.56% # Number of instructions issued per FU type, per thread (Count)
system.cpu.issuedInstType_3::MatrixOP               0      0.00%     78.56% # Number of instructions issued per FU type, per thread (Count)
system.cpu.issuedInstType_3::MemRead            35062     14.41%     92.97% # Number of instructions issued per FU type, per thread (Count)
system.cpu.issuedInstType_3::MemWrite           14696      6.04%     99.01% # Number of instructions issued per FU type, per thread (Count)
system.cpu.issuedInstType_3::FloatMemRead         1203      0.49%     99.50% # Number of instructions issued per FU type, per thread (Count)
system.cpu.issuedInstType_3::FloatMemWrite         1212      0.50%    100.00% # Number of instructions issued per FU type, per thread (Count)
system.cpu.issuedInstType_3::InstPrefetch            0      0.00%    100.00% # Number of instructions issued per FU type, per thread (Count)
system.cpu.issuedInstType_3::SimdUnitStrideLoad            0      0.00%    100.00% # Number of instructions issued per FU type, per thread (Count)
system.cpu.issuedInstType_3::SimdUnitStrideStore            0      0.00%    100.00% # Number of instructions issued per FU type, per thread (Count)
system.cpu.issuedInstType_3::SimdUnitStrideMaskLoad            0      0.00%    100.00% # Number of instructions issued per FU type, per thread (Count)
system.cpu.issuedInstType_3::SimdUnitStrideMaskStore            0      0.00%    100.00% # Number of instructions issued per FU type, per thread (Count)
system.cpu.issuedInstType_3::SimdStridedLoad            0      0.00%    100.00% # Number of instructions issued per FU type, per thread (Count)
system.cpu.issuedInstType_3::SimdStridedStore            0      0.00%    100.00% # Number of instructions issued per FU type, per thread (Count)
system.cpu.issuedInstType_3::SimdIndexedLoad            0      0.00%    100.00% # Number of instructions issued per FU type, per thread (Count)
system.cpu.issuedInstType_3::SimdIndexedStore            0      0.00%    100.00% # Number of instructions issued per FU type, per thread (Count)
system.cpu.issuedInstType_3::SimdWholeRegisterLoad            0      0.00%    100.00% # Number of instructions issued per FU type, per thread (Count)
system.cpu.issuedInstType_3::SimdWholeRegisterStore            0      0.00%    100.00% # Number of instructions issued per FU type, per thread (Count)
system.cpu.issuedInstType_3::SimdUnitStrideFaultOnlyFirstLoad            0      0.00%    100.00% # Number of instructions issued per FU type, per thread (Count)
system.cpu.issuedInstType_3::SimdUnitStrideSegmentedLoad            0      0.00%    100.00% # Number of instructions issued per FU type, per thread (Count)
system.cpu.issuedInstType_3::SimdUnitStrideSegmentedStore            0      0.00%    100.00% # Number of instructions issued per FU type, per thread (Count)
system.cpu.issuedInstType_3::SimdUnitStrideSegmentedFaultOnlyFirstLoad            0      0.00%    100.00% # Number of instructions issued per FU type, per thread (Count)
system.cpu.issuedInstType_3::SimdStrideSegmentedLoad            0      0.00%    100.00% # Number of instructions issued per FU type, per thread (Count)
system.cpu.issuedInstType_3::SimdStrideSegmentedStore            0      0.00%    100.00% # Number of instructions issued per FU type, per thread (Count)
system.cpu.issuedInstType_3::SimdExt                0      0.00%    100.00% # Number of instructions issued per FU type, per thread (Count)
system.cpu.issuedInstType_3::SimdFloatExt            0      0.00%    100.00% # Number of instructions issued per FU type, per thread (Count)
system.cpu.issuedInstType_3::SimdConfig             0      0.00%    100.00% # Number of instructions issued per FU type, per thread (Count)
system.cpu.issuedInstType_3::SimdBf16Add            0      0.00%    100.00% # Number of instructions issued per FU type, per thread (Count)
system.cpu.issuedInstType_3::SimdBf16Cmp            0      0.00%    100.00% # Number of instructions issued per FU type, per thread (Count)
system.cpu.issuedInstType_3::SimdBf16Cvt            0      0.00%    100.00% # Number of instructions issued per FU type, per thread (Count)
system.cpu.issuedInstType_3::SimdBf16DotProd            0      0.00%    100.00% # Number of instructions issued per FU type, per thread (Count)
system.cpu.issuedInstType_3::SimdBf16MatMultAcc            0      0.00%    100.00% # Number of instructions issued per FU type, per thread (Count)
system.cpu.issuedInstType_3::SimdBf16Mult            0      0.00%    100.00% # Number of instructions issued per FU type, per thread (Count)
system.cpu.issuedInstType_3::SimdBf16MultAcc            0      0.00%    100.00% # Number of instructions issued per FU type, per thread (Count)
system.cpu.issuedInstType_3::Bf16Cvt                0      0.00%    100.00% # Number of instructions issued per FU type, per thread (Count)
system.cpu.issuedInstType_3::System                 0      0.00%    100.00% # Number of instructions issued per FU type, per thread (Count)
system.cpu.issuedInstType_3::total             243335                       # Number of instructions issued per FU type, per thread (Count)
system.cpu.issuedInstType::total               967161      0.00%      0.00% # Number of instructions issued per FU type, per thread (Count)
system.cpu.issueRate                         1.995636                       # Inst issue rate ((Count/Cycle))
system.cpu.fuBusy::0                                0                       # FU busy when requested (Count)
system.cpu.fuBusy::1                                1                       # FU busy when requested (Count)
system.cpu.fuBusy::2                                0                       # FU busy when requested (Count)
system.cpu.fuBusy::3                                0                       # FU busy when requested (Count)
system.cpu.fuBusy::total                            1                       # FU busy when requested (Count)
system.cpu.fuBusyRate::0                            0                       # FU busy rate (busy events/executed inst) ((Count/Count))
system.cpu.fuBusyRate::1                     0.000001                       # FU busy rate (busy events/executed inst) ((Count/Count))
system.cpu.fuBusyRate::2                            0                       # FU busy rate (busy events/executed inst) ((Count/Count))
system.cpu.fuBusyRate::3                            0                       # FU busy rate (busy events/executed inst) ((Count/Count))
system.cpu.fuBusyRate::total                 0.000001                       # FU busy rate (busy events/executed inst) ((Count/Count))
system.cpu.intInstQueueReads                  2353822                       # Number of integer instruction queue reads (Count)
system.cpu.intInstQueueWrites                 1119589                       # Number of integer instruction queue writes (Count)
system.cpu.intInstQueueWakeupAccesses          906053                       # Number of integer instruction queue wakeup accesses (Count)
system.cpu.fpInstQueueReads                     58779                       # Number of floating instruction queue reads (Count)
system.cpu.fpInstQueueWrites                    35100                       # Number of floating instruction queue writes (Count)
system.cpu.fpInstQueueWakeupAccesses            27206                       # Number of floating instruction queue wakeup accesses (Count)
system.cpu.vecInstQueueReads                        0                       # Number of vector instruction queue reads (Count)
system.cpu.vecInstQueueWrites                       0                       # Number of vector instruction queue writes (Count)
system.cpu.vecInstQueueWakeupAccesses               0                       # Number of vector instruction queue wakeup accesses (Count)
system.cpu.intAluAccesses                      930248                       # Number of integer alu accesses (Count)
system.cpu.fpAluAccesses                        29286                       # Number of floating point alu accesses (Count)
system.cpu.vecAluAccesses                           0                       # Number of vector alu accesses (Count)
system.cpu.numRecvResp                         194652                       # Number of received responses (Count)
system.cpu.numRecvRespBytes                   1188417                       # Number of received response bytes (Byte)
system.cpu.recvRespAvgBW                         2.45                       # Average bandwidth of received responses ((Byte/Cycle))
system.cpu.recvRespAvgSize                       6.11                       # Average packet size per received response ((Byte/Count))
system.cpu.recvRespAvgRate                       0.40                       # Average rate of received responses per cycle ((Count/Cycle))
system.cpu.recvRespAvgRetryRate                  0.00                       # Average retry rate per received response ((Count/Count))
system.cpu.numSendRetryResp                         0                       # Number of retry responses sent (Count)
system.cpu.numSquashedInsts                     22851                       # Number of squashed instructions skipped in execute (Count)
system.cpu.numSwp::0                                0                       # Number of swp insts executed (Count)
system.cpu.numSwp::1                                0                       # Number of swp insts executed (Count)
system.cpu.numSwp::2                                0                       # Number of swp insts executed (Count)
system.cpu.numSwp::3                                0                       # Number of swp insts executed (Count)
system.cpu.numSwp::total                            0                       # Number of swp insts executed (Count)
system.cpu.timesIdled                             743                       # Number of times that the entire CPU went into an idle state and unscheduled itself (Count)
system.cpu.idleCycles                            9868                       # Total number of cycles that the CPU has spent unscheduled due to idling (Cycle)
system.cpu.MemDepUnit__0.insertedLoads          36783                       # Number of loads inserted to the mem dependence unit. (Count)
system.cpu.MemDepUnit__0.insertedStores         17012                       # Number of stores inserted to the mem dependence unit. (Count)
system.cpu.MemDepUnit__0.conflictingLoads         1921                       # Number of conflicting loads. (Count)
system.cpu.MemDepUnit__0.conflictingStores          858                       # Number of conflicting stores. (Count)
system.cpu.MemDepUnit__1.insertedLoads          36538                       # Number of loads inserted to the mem dependence unit. (Count)
system.cpu.MemDepUnit__1.insertedStores         16823                       # Number of stores inserted to the mem dependence unit. (Count)
system.cpu.MemDepUnit__1.conflictingLoads         1983                       # Number of conflicting loads. (Count)
system.cpu.MemDepUnit__1.conflictingStores          877                       # Number of conflicting stores. (Count)
system.cpu.MemDepUnit__2.insertedLoads          36590                       # Number of loads inserted to the mem dependence unit. (Count)
system.cpu.MemDepUnit__2.insertedStores         16870                       # Number of stores inserted to the mem dependence unit. (Count)
system.cpu.MemDepUnit__2.conflictingLoads         1968                       # Number of conflicting loads. (Count)
system.cpu.MemDepUnit__2.conflictingStores          873                       # Number of conflicting stores. (Count)
system.cpu.MemDepUnit__3.insertedLoads          36697                       # Number of loads inserted to the mem dependence unit. (Count)
system.cpu.MemDepUnit__3.insertedStores         17024                       # Number of stores inserted to the mem dependence unit. (Count)
system.cpu.MemDepUnit__3.conflictingLoads         1949                       # Number of conflicting loads. (Count)
system.cpu.MemDepUnit__3.conflictingStores          872                       # Number of conflicting stores. (Count)
system.cpu.bac.fetchTargets                         0                       # Number of fetch targets created  (Count)
system.cpu.bac.branches                        121680                       # Number of branches that BAC encountered (Count)
system.cpu.bac.predTakenBranches                18886                       # Number of branches that BAC predicted taken. (Count)
system.cpu.bac.branchesNotLastuOp                   0                       # Number of branches that fetch encountered which are not the last uOp within a macrooperation. Jump to itself. (Count)
system.cpu.bac.branchMisspredict                40195                       # Number of mispredicted branches (Count)
system.cpu.bac.noBranchMisspredict               1860                       # Number of non-branch instructions mispredicted (Count)
system.cpu.bac.squashBranchDecode                9710                       # Number of branches squashed from decode (Count)
system.cpu.bac.squashBranchCommit               30485                       # Number of branches squashed from commit (Count)
system.cpu.bac.preDecUpdate::NoBranch               0                       # Number of branches extracted from the predecoder (Count)
system.cpu.bac.preDecUpdate::Return                 0                       # Number of branches extracted from the predecoder (Count)
system.cpu.bac.preDecUpdate::CallDirect             0                       # Number of branches extracted from the predecoder (Count)
system.cpu.bac.preDecUpdate::CallIndirect            0                       # Number of branches extracted from the predecoder (Count)
system.cpu.bac.preDecUpdate::DirectCond             0                       # Number of branches extracted from the predecoder (Count)
system.cpu.bac.preDecUpdate::DirectUncond            0                       # Number of branches extracted from the predecoder (Count)
system.cpu.bac.preDecUpdate::IndirectCond            0                       # Number of branches extracted from the predecoder (Count)
system.cpu.bac.preDecUpdate::IndirectUncond            0                       # Number of branches extracted from the predecoder (Count)
system.cpu.bac.preDecUpdate::total                  0                       # Number of branches extracted from the predecoder (Count)
system.cpu.bac.noHistByType::NoBranch               0                       # Number and type of branches that were undetected by the BPU. (Count)
system.cpu.bac.noHistByType::Return                 0                       # Number and type of branches that were undetected by the BPU. (Count)
system.cpu.bac.noHistByType::CallDirect             0                       # Number and type of branches that were undetected by the BPU. (Count)
system.cpu.bac.noHistByType::CallIndirect            0                       # Number and type of branches that were undetected by the BPU. (Count)
system.cpu.bac.noHistByType::DirectCond             0                       # Number and type of branches that were undetected by the BPU. (Count)
system.cpu.bac.noHistByType::DirectUncond            0                       # Number and type of branches that were undetected by the BPU. (Count)
system.cpu.bac.noHistByType::IndirectCond            0                       # Number and type of branches that were undetected by the BPU. (Count)
system.cpu.bac.noHistByType::IndirectUncond            0                       # Number and type of branches that were undetected by the BPU. (Count)
system.cpu.bac.noHistByType::total                  0                       # Number and type of branches that were undetected by the BPU. (Count)
system.cpu.bac.typeMissmatch                        0                       # Number branches where the branch type miss match (Count)
system.cpu.bac.multiBranchInst                      0                       # Number branches because its not the last branch. (Count)
system.cpu.bac.ftSizeDist::samples                  0                       # Number of bytes per fetch target (Count)
system.cpu.bac.ftSizeDist::mean                   nan                       # Number of bytes per fetch target (Count)
system.cpu.bac.ftSizeDist::stdev                  nan                       # Number of bytes per fetch target (Count)
system.cpu.bac.ftSizeDist::underflows               0                       # Number of bytes per fetch target (Count)
system.cpu.bac.ftSizeDist::0-3                      0                       # Number of bytes per fetch target (Count)
system.cpu.bac.ftSizeDist::4-7                      0                       # Number of bytes per fetch target (Count)
system.cpu.bac.ftSizeDist::8-11                     0                       # Number of bytes per fetch target (Count)
system.cpu.bac.ftSizeDist::12-15                    0                       # Number of bytes per fetch target (Count)
system.cpu.bac.ftSizeDist::16-19                    0                       # Number of bytes per fetch target (Count)
system.cpu.bac.ftSizeDist::20-23                    0                       # Number of bytes per fetch target (Count)
system.cpu.bac.ftSizeDist::24-27                    0                       # Number of bytes per fetch target (Count)
system.cpu.bac.ftSizeDist::28-31                    0                       # Number of bytes per fetch target (Count)
[...]
system.mem_ctrl.dram.bwRead::total         2226887340                       # Total read bandwidth from this memory ((Byte/Second))
system.mem_ctrl.dram.bwInstRead::cpu.inst    940382183                       # Instruction read bandwidth from this memory ((Byte/Second))
system.mem_ctrl.dram.bwInstRead::total      940382183                       # Instruction read bandwidth from this memory ((Byte/Second))
system.mem_ctrl.dram.bwWrite::writebacks    413868524                       # Write bandwidth from this memory ((Byte/Second))
system.mem_ctrl.dram.bwWrite::total         413868524                       # Write bandwidth from this memory ((Byte/Second))
system.mem_ctrl.dram.bwTotal::writebacks    413868524                       # Total bandwidth to/from this memory ((Byte/Second))
system.mem_ctrl.dram.bwTotal::cpu.inst      940382183                       # Total bandwidth to/from this memory ((Byte/Second))
system.mem_ctrl.dram.bwTotal::cpu.data     1286505157                       # Total bandwidth to/from this memory ((Byte/Second))
system.mem_ctrl.dram.bwTotal::total        2640755865                       # Total bandwidth to/from this memory ((Byte/Second))
system.mem_ctrl.dram.readBursts                 16315                       # Number of DRAM read bursts (Count)
system.mem_ctrl.dram.writeBursts                 2856                       # Number of DRAM write bursts (Count)
system.mem_ctrl.dram.perBankRdBursts::0          1334                       # Per bank write bursts (Count)
system.mem_ctrl.dram.perBankRdBursts::1           938                       # Per bank write bursts (Count)
system.mem_ctrl.dram.perBankRdBursts::2           966                       # Per bank write bursts (Count)
system.mem_ctrl.dram.perBankRdBursts::3          1432                       # Per bank write bursts (Count)
system.mem_ctrl.dram.perBankRdBursts::4           885                       # Per bank write bursts (Count)
system.mem_ctrl.dram.perBankRdBursts::5           778                       # Per bank write bursts (Count)
system.mem_ctrl.dram.perBankRdBursts::6          1044                       # Per bank write bursts (Count)
system.mem_ctrl.dram.perBankRdBursts::7          1175                       # Per bank write bursts (Count)
system.mem_ctrl.dram.perBankRdBursts::8          1185                       # Per bank write bursts (Count)
system.mem_ctrl.dram.perBankRdBursts::9           886                       # Per bank write bursts (Count)
system.mem_ctrl.dram.perBankRdBursts::10          915                       # Per bank write bursts (Count)
system.mem_ctrl.dram.perBankRdBursts::11          528                       # Per bank write bursts (Count)
system.mem_ctrl.dram.perBankRdBursts::12          519                       # Per bank write bursts (Count)
system.mem_ctrl.dram.perBankRdBursts::13          872                       # Per bank write bursts (Count)
system.mem_ctrl.dram.perBankRdBursts::14         1239                       # Per bank write bursts (Count)
system.mem_ctrl.dram.perBankRdBursts::15         1619                       # Per bank write bursts (Count)
system.mem_ctrl.dram.perBankWrBursts::0           472                       # Per bank write bursts (Count)
system.mem_ctrl.dram.perBankWrBursts::1           200                       # Per bank write bursts (Count)
system.mem_ctrl.dram.perBankWrBursts::2           119                       # Per bank write bursts (Count)
system.mem_ctrl.dram.perBankWrBursts::3           119                       # Per bank write bursts (Count)
system.mem_ctrl.dram.perBankWrBursts::4           123                       # Per bank write bursts (Count)
system.mem_ctrl.dram.perBankWrBursts::5            52                       # Per bank write bursts (Count)
system.mem_ctrl.dram.perBankWrBursts::6           193                       # Per bank write bursts (Count)
system.mem_ctrl.dram.perBankWrBursts::7           180                       # Per bank write bursts (Count)
system.mem_ctrl.dram.perBankWrBursts::8           155                       # Per bank write bursts (Count)
system.mem_ctrl.dram.perBankWrBursts::9            82                       # Per bank write bursts (Count)
system.mem_ctrl.dram.perBankWrBursts::10          200                       # Per bank write bursts (Count)
system.mem_ctrl.dram.perBankWrBursts::11           20                       # Per bank write bursts (Count)
system.mem_ctrl.dram.perBankWrBursts::12           20                       # Per bank write bursts (Count)
system.mem_ctrl.dram.perBankWrBursts::13          144                       # Per bank write bursts (Count)
system.mem_ctrl.dram.perBankWrBursts::14          248                       # Per bank write bursts (Count)
system.mem_ctrl.dram.perBankWrBursts::15          529                       # Per bank write bursts (Count)
system.mem_ctrl.dram.totQLat                513115250                       # Total ticks spent queuing (Tick)
system.mem_ctrl.dram.totBusLat               81575000                       # Total ticks spent in databus transfers (Tick)
system.mem_ctrl.dram.totMemAccLat           819021500                       # Total ticks spent from burst creation until serviced by the DRAM (Tick)
system.mem_ctrl.dram.avgQLat                 31450.52                       # Average queueing delay per DRAM burst ((Tick/Count))
system.mem_ctrl.dram.avgBusLat                5000.00                       # Average bus latency per DRAM burst ((Tick/Count))
system.mem_ctrl.dram.avgMemAccLat            50200.52                       # Average memory access latency per DRAM burst ((Tick/Count))
system.mem_ctrl.dram.readRowHits                 8471                       # Number of row buffer hits during reads (Count)
system.mem_ctrl.dram.writeRowHits                2209                       # Number of row buffer hits during writes (Count)
system.mem_ctrl.dram.readRowHitRate             51.92                       # Row buffer hit rate for reads (Ratio)
system.mem_ctrl.dram.writeRowHitRate            77.35                       # Row buffer hit rate for writes (Ratio)
system.mem_ctrl.dram.bytesPerActivate::samples         8483                       # Bytes accessed per row activation (Byte)
system.mem_ctrl.dram.bytesPerActivate::mean   144.439467                       # Bytes accessed per row activation (Byte)
system.mem_ctrl.dram.bytesPerActivate::gmean   104.295450                       # Bytes accessed per row activation (Byte)
system.mem_ctrl.dram.bytesPerActivate::stdev   166.671076                       # Bytes accessed per row activation (Byte)
system.mem_ctrl.dram.bytesPerActivate::0-127         4957     58.43%     58.43% # Bytes accessed per row activation (Byte)
system.mem_ctrl.dram.bytesPerActivate::128-255         2277     26.84%     85.28% # Bytes accessed per row activation (Byte)
system.mem_ctrl.dram.bytesPerActivate::256-383          588      6.93%     92.21% # Bytes accessed per row activation (Byte)
system.mem_ctrl.dram.bytesPerActivate::384-511          255      3.01%     95.21% # Bytes accessed per row activation (Byte)
system.mem_ctrl.dram.bytesPerActivate::512-639          122      1.44%     96.65% # Bytes accessed per row activation (Byte)
system.mem_ctrl.dram.bytesPerActivate::640-767           73      0.86%     97.51% # Bytes accessed per row activation (Byte)
system.mem_ctrl.dram.bytesPerActivate::768-895           69      0.81%     98.33% # Bytes accessed per row activation (Byte)
system.mem_ctrl.dram.bytesPerActivate::896-1023           33      0.39%     98.72% # Bytes accessed per row activation (Byte)
system.mem_ctrl.dram.bytesPerActivate::1024-1151          109      1.28%    100.00% # Bytes accessed per row activation (Byte)
system.mem_ctrl.dram.bytesPerActivate::total         8483                       # Bytes accessed per row activation (Byte)
system.mem_ctrl.dram.dramBytesRead            1044160                       # Total bytes read (Byte)
system.mem_ctrl.dram.dramBytesWritten          182784                       # Total bytes written (Byte)
system.mem_ctrl.dram.avgRdBW              2154.519775                       # Average DRAM read bandwidth in MiBytes/s ((Byte/Second))
system.mem_ctrl.dram.avgWrBW               377.156511                       # Average DRAM write bandwidth in MiBytes/s ((Byte/Second))
system.mem_ctrl.dram.peakBW                  12800.00                       # Theoretical peak bandwidth in MiByte/s ((Byte/Second))
system.mem_ctrl.dram.busUtil                    19.78                       # Data bus utilization in percentage (Ratio)
system.mem_ctrl.dram.busUtilRead                16.83                       # Data bus utilization in percentage for reads (Ratio)
system.mem_ctrl.dram.busUtilWrite                2.95                       # Data bus utilization in percentage for writes (Ratio)
system.mem_ctrl.dram.pageHitRate                55.71                       # Row buffer hit rate, read and write combined (Ratio)
system.mem_ctrl.dram.power_state.pwrStateResidencyTicks::UNDEFINED    484637000                       # Cumulative time (in ticks) in various power states (Tick)
system.mem_ctrl.dram.rank0.actEnergy         31801560                       # Energy for activate commands per rank (pJ) (Joule)
system.mem_ctrl.dram.rank0.preEnergy         16883955                       # Energy for precharge commands per rank (pJ) (Joule)
system.mem_ctrl.dram.rank0.readEnergy        61061280                       # Energy for read commands per rank (pJ) (Joule)
system.mem_ctrl.dram.rank0.writeEnergy        7610760                       # Energy for write commands per rank (pJ) (Joule)
system.mem_ctrl.dram.rank0.refreshEnergy 38107680.000000                       # Energy for refresh commands per rank (pJ) (Joule)
system.mem_ctrl.dram.rank0.actBackEnergy    203001510                       # Energy for active background per rank (pJ) (Joule)
system.mem_ctrl.dram.rank0.preBackEnergy     15152160                       # Energy for precharge background per rank (pJ) (Joule)
system.mem_ctrl.dram.rank0.actPowerDownEnergy            0                       # Energy for active power-down per rank (pJ) (Joule)
system.mem_ctrl.dram.rank0.prePowerDownEnergy            0                       # Energy for precharge power-down per rank (pJ) (Joule)
system.mem_ctrl.dram.rank0.selfRefreshEnergy            0                       # Energy for self refresh per rank (pJ) (Joule)
system.mem_ctrl.dram.rank0.totalEnergy      373618905                       # Total energy per rank (pJ) (Joule)
system.mem_ctrl.dram.rank0.averagePower    770.925260                       # Core power per rank (mW) (Watt)
system.mem_ctrl.dram.rank0.totalIdleTime            0                       # Total Idle time Per DRAM Rank (Tick)
system.mem_ctrl.dram.rank0.pwrStateTime::IDLE     37422750                       # Time in different power states (Tick)
system.mem_ctrl.dram.rank0.pwrStateTime::REF     16120000                       # Time in different power states (Tick)
system.mem_ctrl.dram.rank0.pwrStateTime::SREF            0                       # Time in different power states (Tick)
system.mem_ctrl.dram.rank0.pwrStateTime::PRE_PDN            0                       # Time in different power states (Tick)
system.mem_ctrl.dram.rank0.pwrStateTime::ACT    431094250                       # Time in different power states (Tick)
system.mem_ctrl.dram.rank0.pwrStateTime::ACT_PDN            0                       # Time in different power states (Tick)
system.mem_ctrl.dram.rank1.actEnergy         28824180                       # Energy for activate commands per rank (pJ) (Joule)
system.mem_ctrl.dram.rank1.preEnergy         15309030                       # Energy for precharge commands per rank (pJ) (Joule)
system.mem_ctrl.dram.rank1.readEnergy        55427820                       # Energy for read commands per rank (pJ) (Joule)
system.mem_ctrl.dram.rank1.writeEnergy        7297560                       # Energy for write commands per rank (pJ) (Joule)
system.mem_ctrl.dram.rank1.refreshEnergy 38107680.000000                       # Energy for refresh commands per rank (pJ) (Joule)
system.mem_ctrl.dram.rank1.actBackEnergy    204881370                       # Energy for active background per rank (pJ) (Joule)
system.mem_ctrl.dram.rank1.preBackEnergy     13569120                       # Energy for precharge background per rank (pJ) (Joule)
system.mem_ctrl.dram.rank1.actPowerDownEnergy            0                       # Energy for active power-down per rank (pJ) (Joule)
system.mem_ctrl.dram.rank1.prePowerDownEnergy            0                       # Energy for precharge power-down per rank (pJ) (Joule)
system.mem_ctrl.dram.rank1.selfRefreshEnergy            0                       # Energy for self refresh per rank (pJ) (Joule)
system.mem_ctrl.dram.rank1.totalEnergy      363416760                       # Total energy per rank (pJ) (Joule)
system.mem_ctrl.dram.rank1.averagePower    749.874153                       # Core power per rank (mW) (Watt)
system.mem_ctrl.dram.rank1.totalIdleTime            0                       # Total Idle time Per DRAM Rank (Tick)
system.mem_ctrl.dram.rank1.pwrStateTime::IDLE     33562750                       # Time in different power states (Tick)
system.mem_ctrl.dram.rank1.pwrStateTime::REF     16120000                       # Time in different power states (Tick)
system.mem_ctrl.dram.rank1.pwrStateTime::SREF            0                       # Time in different power states (Tick)
system.mem_ctrl.dram.rank1.pwrStateTime::PRE_PDN            0                       # Time in different power states (Tick)
system.mem_ctrl.dram.rank1.pwrStateTime::ACT    434954250                       # Time in different power states (Tick)
system.mem_ctrl.dram.rank1.pwrStateTime::ACT_PDN            0                       # Time in different power states (Tick)
system.mem_ctrl.power_state.pwrStateResidencyTicks::UNDEFINED    484637000                       # Cumulative time (in ticks) in various power states (Tick)
system.membus.transDist::ReadResp               14950                       # Transaction distribution (Count)
system.membus.transDist::WritebackDirty          3134                       # Transaction distribution (Count)
system.membus.transDist::CleanEvict             12705                       # Transaction distribution (Count)
system.membus.transDist::UpgradeReq                 1                       # Transaction distribution (Count)
system.membus.transDist::ReadExReq               1914                       # Transaction distribution (Count)
system.membus.transDist::ReadExResp              1914                       # Transaction distribution (Count)
system.membus.transDist::ReadSharedReq          14950                       # Transaction distribution (Count)
system.membus.pktCount_system.cpu.icache.mem_side_port::system.mem_ctrl.port        20852                       # Packet count per connected requestor and responder (Count)
system.membus.pktCount_system.cpu.icache.mem_side_port::total        20852                       # Packet count per connected requestor and responder (Count)
system.membus.pktCount_system.cpu.dcache.mem_side_port::system.mem_ctrl.port        28715                       # Packet count per connected requestor and responder (Count)
system.membus.pktCount_system.cpu.dcache.mem_side_port::total        28715                       # Packet count per connected requestor and responder (Count)
system.membus.pktCount::total                   49567                       # Packet count per connected requestor and responder (Count)
system.membus.pktSize_system.cpu.icache.mem_side_port::system.mem_ctrl.port       455744                       # Cumulative packet size per connected requestor and responder (Byte)
system.membus.pktSize_system.cpu.icache.mem_side_port::total       455744                       # Cumulative packet size per connected requestor and responder (Byte)
system.membus.pktSize_system.cpu.dcache.mem_side_port::system.mem_ctrl.port       824064                       # Cumulative packet size per connected requestor and responder (Byte)
system.membus.pktSize_system.cpu.dcache.mem_side_port::total       824064                       # Cumulative packet size per connected requestor and responder (Byte)
system.membus.pktSize::total                  1279808                       # Cumulative packet size per connected requestor and responder (Byte)
system.membus.snoops                                1                       # Total snoops (Count)
system.membus.snoopTraffic                         64                       # Total snoop traffic (Byte)
system.membus.snoopFanout::samples              16865                       # Request fanout histogram (Count)
system.membus.snoopFanout::mean              0.000593                       # Request fanout histogram (Count)
system.membus.snoopFanout::stdev             0.024344                       # Request fanout histogram (Count)
system.membus.snoopFanout::underflows               0      0.00%      0.00% # Request fanout histogram (Count)
system.membus.snoopFanout::0                    16855     99.94%     99.94% # Request fanout histogram (Count)
system.membus.snoopFanout::1                       10      0.06%    100.00% # Request fanout histogram (Count)
system.membus.snoopFanout::2                        0      0.00%    100.00% # Request fanout histogram (Count)
system.membus.snoopFanout::overflows                0      0.00%    100.00% # Request fanout histogram (Count)
system.membus.snoopFanout::min_value                0                       # Request fanout histogram (Count)
system.membus.snoopFanout::max_value                1                       # Request fanout histogram (Count)
system.membus.snoopFanout::total                16865                       # Request fanout histogram (Count)
system.membus.power_state.pwrStateResidencyTicks::UNDEFINED    484637000                       # Cumulative time (in ticks) in various power states (Tick)
system.membus.reqLayer8.occupancy            45240000                       # Layer occupancy (ticks) (Tick)
system.membus.reqLayer8.utilization               0.1                       # Layer utilization (Ratio)
system.membus.respLayer0.occupancy           38123247                       # Layer occupancy (ticks) (Tick)
system.membus.respLayer0.utilization              0.1                       # Layer utilization (Ratio)
system.membus.respLayer1.occupancy           52223498                       # Layer occupancy (ticks) (Tick)
system.membus.respLayer1.utilization              0.1                       # Layer utilization (Ratio)
system.membus.snoop_filter.totRequests          32704                       # Total number of requests made to the snoop filter. (Count)
system.membus.snoop_filter.hitSingleRequests        15839                       # Number of requests hitting in the snoop filter with a single holder of the requested data. (Count)
system.membus.snoop_filter.hitMultiRequests           10                       # Number of requests hitting in the snoop filter with multiple (>1) holders of the requested data. (Count)
system.membus.snoop_filter.totSnoops                0                       # Total number of snoops made to the snoop filter. (Count)
system.membus.snoop_filter.hitSingleSnoops            0                       # Number of snoops hitting in the snoop filter with a single holder of the requested data. (Count)
system.membus.snoop_filter.hitMultiSnoops            0                       # Number of snoops hitting in the snoop filter with multiple (>1) holders of the requested data. (Count)
system.workload.inst.arm                            0                       # number of arm instructions executed (Count)
system.workload.inst.quiesce                        0                       # number of quiesce instructions executed (Count)

---------- End Simulation Statistics   ----------
